Material: main / Ag / Palik
Optical constants. Edited by E. D. Palik. Handbook of Optical Constants of Solids II, ACADEMIC PRESS, INC. (1991),
Comments: Room temperature
wavelength (um)	n	k
1.2398e-04	0.9990	1.29e-6
1.5498e-04	1.000	2.92e-6
2.0664e-04	1.002	8.36e-6
2.4797e-04	1.001	1.52e-5
2.7552e-04	1.001	2.21e-5
3.0996e-04	1.003	3.57e-5
3.4440e-04	1.003	3.24e-5
3.5424e-04	1.003	1.72e-5
4.1328e-04	1.001	1.43e-5
4.9594e-04	1.001	2.40e-5
6.1992e-04	1.001	4.72e-5
8.2656e-04	0.999	1.21e-4
1.2398e-03	0.998	5.23e-4
1.5498e-03	0.997	1.08e-3
1.6755e-03	0.998	1.42e-3
2.0664e-03	0.997	2.69e-3
2.4797e-03	0.997	4.57e-3
3.0996e-03	0.998	8.82e-3
3.3509e-03	1.007	8.23e-3
3.5424e-03	1.001	1.68e-3
4.1328e-03	0.996	2.32e-3
4.4280e-03	0.994	2.70e-3
4.7686e-03	0.992	3.11e-3
5.1660e-03	0.989	3.50e-3
5.6356e-03	0.987	3.45e-3
6.1992e-03	0.982	3.77e-3
6.8880e-03	0.978	4.31e-3
7.2932e-03	0.973	4.42e-3
7.7490e-03	0.968	4.38e-3
8.2656e-03	0.963	4.07e-3
8.8560e-03	0.955	3.54e-3
9.5372e-03	0.943	3.66e-3
1.0332e-02	0.926	6.22e-3
1.1271e-02	0.902	1.72e-2
1.1808e-02	0.890	2.61e-2
1.2398e-02	0.876	3.82e-2
1.3051e-02	0.861	5.65e-2
1.3776e-02	0.849	8.24e-2
1.4586e-02	0.846	0.111
1.5498e-02	0.848	0.139
1.5895e-02	0.851	0.149
1.6314e-02	0.853	0.158
1.6755e-02	0.853	0.166
1.7220e-02	0.851	0.181
1.7712e-02	0.859	0.197
1.8233e-02	0.871	0.208
1.8785e-02	0.883	0.211
1.9373e-02	0.885	0.210
1.9997e-02	0.881	0.211
2.0664e-02	0.873	0.221
2.1377e-02	0.868	0.237
2.2140e-02	0.871	0.259
2.2960e-02	0.885	0.274
2.3393e-02	0.890	0.275
2.3843e-02	0.889	0.276
2.4311e-02	0.886	0.281
2.4797e-02	0.884	0.290
2.5303e-02	0.885	0.300
2.5830e-02	0.888	0.309
2.6380e-02	0.893	0.317
2.6953e-02	0.896	0.323
2.8178e-02	0.899	0.334
2.9520e-02	0.897	0.349
3.0996e-02	0.896	0.368
3.1791e-02	0.895	0.378
3.2627e-02	0.892	0.388
3.3509e-02	0.885	0.400
3.4440e-02	0.876	0.418
3.5424e-02	0.865	0.454
3.6466e-02	0.879	0.489
3.7571e-02	0.899	0.514
3.8745e-02	0.921	0.528
3.9995e-02	0.932	0.534
4.1328e-02	0.931	0.541
4.2753e-02	0.919	0.557
4.3503e-02	0.911	0.572
4.4280e-02	0.902	0.590
4.5085e-02	0.851	0.616
4.5920e-02	0.886	0.650
4.6786e-02	0.886	0.421
4.7686e-02	0.887	0.444
4.8621e-02	0.891	0.468
5.0606e-02	0.906	0.522
5.2759e-02	0.943	0.584
5.3906e-02	0.980	0.614
5.5104e-02	1.029	0.624
5.6356e-02	1.075	0.615
5.7667e-02	1.104	0.584
5.9040e-02	1.109	0.561
6.0480e-02	1.105	0.549
6.1992e-02	1.098	0.548
6.5255e-02	1.096	0.565
6.8880e-02	1.101	0.593
7.2932e-02	1.121	0.635
7.7490e-02	1.167	0.676
7.9990e-02	1.202	0.691
8.2656e-02	1.243	0.693
8.5506e-02	1.281	0.679
8.8560e-02	1.308	0.656
9.1840e-02	1.322	0.628
9.5372e-02	1.322	0.603
9.9187e-02	1.315	0.588
1.0247e-01	1.308	0.581
1.0507e-01	1.304	0.578
1.0781e-01	1.300	0.573
1.1070e-01	1.293	0.566
1.1375e-01	1.280	0.560
1.1697e-01	1.265	0.560
1.2037e-01	1.252	0.564
1.2398e-01	1.241	0.568
1.2782e-01	1.229	0.566
1.3477e-01	1.182	0.550
1.3776e-01	1.149	0.552
1.4089e-01	1.112	0.563
1.4417e-01	1.073	0.581
1.4760e-01	1.032	0.610
1.5120e-01	0.993	0.653
1.5498e-01	0.962	0.706
1.5895e-01	0.940	0.770
1.6314e-01	0.935	0.832
1.6755e-01	0.936	0.892
1.7220e-01	0.942	0.951
1.7712e-01	0.953	1.01
1.8233e-01	0.969	1.07
1.8785e-01	0.995	1.13
1.9373e-01	1.028	1.18
1.9680e-01	1.048	1.21
1.9997e-01	1.072	1.24
2.0325e-01	1.098	1.26
2.0664e-01	1.125	1.27
2.1377e-01	1.173	1.29
2.2140e-01	1.208	1.30
2.2960e-01	1.238	1.31
2.3843e-01	1.265	1.33
2.4797e-01	1.298	1.35
2.5303e-01	1.320	1.35
2.5830e-01	1.343	1.35
2.6380e-01	1.372	1.35
2.6953e-01	1.404	1.33
2.7552e-01	1.441	1.31
2.8178e-01	1.476	1.26
2.8834e-01	1.502	1.19
2.9520e-01	1.519	1.08
2.9876e-01	1.522	0.992
3.0240e-01	1.496	0.882
3.0613e-01	1.432	0.766
3.0996e-01	1.323	0.647
3.1152e-01	1.246	0.586
3.1388e-01	1.149	0.540
3.1548e-01	1.044	0.514
3.1791e-01	0.932	0.504
3.1955e-01	0.815	0.526
3.2204e-01	0.708	0.565
3.2372e-01	0.616	0.609
3.2627e-01	0.526	0.663
3.3062e-01	0.371	0.813
3.3240e-01	0.321	0.902
3.3509e-01	0.294	0.986
3.3968e-01	0.259	1.12
3.4440e-01	0.238	1.24
3.5424e-01	0.209	1.44
3.6466e-01	0.186	1.61
3.7571e-01	0.200	1.67
3.8745e-01	0.192	1.81
3.9995e-01	0.173	1.95
4.1328e-01	0.173	2.11
4.2753e-01	0.160	2.26
4.4280e-01	0.157	2.40
4.5920e-01	0.144	2.56
4.7686e-01	0.132	2.72
4.9594e-01	0.130	2.88
5.1660e-01	0.130	3.07
5.3906e-01	0.129	3.25
5.6356e-01	0.120	3.45
5.9040e-01	0.121	3.66
6.1992e-01	0.131	3.88
6.5255e-01	0.140	4.15
6.8880e-01	0.140	4.44
7.2932e-01	0.148	4.74
7.7490e-01	0.143	5.09
8.2656e-01	0.145	5.50
8.8560e-01	0.163	5.95
9.5372e-01	0.198	6.43
1.0332e+00	0.226	6.99
1.1271e+00	0.251	7.67
1.2398e+00	0.329	8.49
1.2651e+00	0.375	7.78
1.2915e+00	0.383	7.92
1.3051e+00	0.358	8.95
1.3190e+00	0.392	8.06
1.3477e+00	0.401	8.21
1.3776e+00	0.396	9.48
1.4089e+00	0.421	8.37
1.4417e+00	0.431	8.70
1.4586e+00	0.446	10.1
1.4760e+00	0.442	8.88
1.5120e+00	0.455	9.08
1.5498e+00	0.514	10.8
1.5895e+00	0.485	9.57
1.6314e+00	0.501	9.84
1.6531e+00	0.624	11.5
1.6755e+00	0.519	10.1
1.7220e+00	0.537	10.4
1.7712e+00	0.844	12.2
1.8233e+00	0.578	11.1
1.8785e+00	0.600	11.4
1.9074e+00	0.873	13.3
1.9373e+00	0.624	11.8
1.9997e+00	0.650	12.2
2.0664e+00	1.064	14.4
2.1377e+00	0.729	13.0
2.2140e+00	0.774	13.5
2.2960e+00	0.823	14.0
2.3843e+00	0.878	14.5
2.4797e+00	0.939	15.1
2.5830e+00	1.007	15.7
2.6953e+00	1.083	16.4
2.8178e+00	1.168	17.1
2.9520e+00	1.265	17.9
3.0996e+00	1.387	18.8
3.2627e+00	1.536	19.8
3.4440e+00	1.710	20.9
3.6466e+00	1.915	22.1
3.8745e+00	2.160	23.5
4.1328e+00	2.446	25.1
4.4280e+00	2.786	26.9
4.7686e+00	3.202	29.0
5.1660e+00	3.732	31.3
5.6356e+00	4.425	34.0
6.1992e+00	5.355	37.0
6.5255e+00	5.960	38.6
6.8880e+00	6.670	40.4
7.2932e+00	7.461	42.5
7.7490e+00	8.376	44.8
8.2656e+00	9.441	47.1
8.8560e+00	10.69	49.4
9.5372e+00	12.21	52.2
9.9187e+00	13.11	53.7
