Material: main / Cu / Palik
Optical constants. Edited by E. D. Palik. Handbook of Optical Constants of Solids II, ACADEMIC PRESS, INC. (1991),
Comments: Room temperature
wavelength (um)	n	k
1.3776e-04	1.0010	3.65e-7
1.3931e-04	1.0010	3.56e-7
1.5498e-04	1.0010	5.38e-7
3.0996e-04	1.0000	6.62e-6
4.1328e-04	1.0000	9.49e-5
8.2656e-04	1.0000	2.73e-4
1.0332e-03	0.999	6.24e-4
1.1271e-03	0.999	8.23e-4
1.2398e-03	0.999	8.51e-4
1.3776e-03	1.000	1.74e-4
1.5498e-03	0.999	2.63e-4
1.7712e-03	0.998	3.95e-4
2.0664e-03	0.997	6.51e-4
2.4797e-03	0.997	1.11e-3
3.0996e-03	0.993	2.45e-3
4.1328e-03	0.988	5.13e-3
6.1992e-03	0.978	1.59e-2
8.2656e-03	0.969	3.10e-2
1.0332e-02	0.965	5.40e-2
1.1271e-02	0.968	5.99e-2
1.1808e-02	0.968	6.25e-2
1.2398e-02	0.967	6.53e-2
1.3051e-02	0.965	6.93e-2
1.3477e-02	0.963	7.44e-2
1.3776e-02	0.963	7.88e-2
1.4089e-02	0.963	8.34e-2
1.4417e-02	0.966	8.77e-2
1.4760e-02	0.969	9.11e-2
1.4938e-02	0.971	9.23e-2
1.5120e-02	0.973	9.34e-2
1.5307e-02	0.974	9.43e-2
1.5498e-02	0.977	9.46e-2
1.5694e-02	0.979	9.41e-2
1.5895e-02	0.980	9.36e-2
1.6102e-02	0.982	9.21e-2
1.6314e-02	0.984	9.10e-2
1.6531e-02	0.983	8.72e-2
1.6755e-02	0.979	8.50e-2
1.6984e-02	0.977	8.57e-2
1.7220e-02	0.975	8.68e-2
1.7463e-02	0.974	8.81e-2
1.7712e-02	0.972	8.93e-2
1.8233e-02	0.968	9.27e-2
1.8785e-02	0.967	9.63e-2
1.9373e-02	0.965	0.102
1.9997e-02	0.965	0.107
2.0664e-02	0.966	0.109
2.1377e-02	0.964	0.110
2.2140e-02	0.960	0.114
2.2960e-02	0.957	0.120
2.3843e-02	0.954	0.126
2.4797e-02	0.953	0.134
2.5830e-02	0.952	0.140
2.6953e-02	0.951	0.146
2.8178e-02	0.948	0.151
2.9520e-02	0.942	0.157
3.0996e-02	0.934	0.167
3.2627e-02	0.927	0.180
3.4440e-02	0.922	0.193
3.6466e-02	0.910	0.205
3.8745e-02	0.891	0.223
4.1328e-02	0.856	0.262
4.2753e-02	0.849	0.302
4.4280e-02	0.862	0.346
4.5920e-02	0.884	0.382
4.7686e-02	0.921	0.403
4.9594e-02	0.960	0.396
5.1660e-02	0.961	0.373
5.3906e-02	0.943	0.366
5.6356e-02	0.917	0.381
5.9040e-02	0.897	0.411
6.1992e-02	0.882	0.455
6.5255e-02	0.883	0.507
6.8880e-02	0.890	0.561
7.2932e-02	0.913	0.620
7.7490e-02	0.954	0.673
7.9990e-02	0.981	0.695
8.2656e-02	1.01	0.707
8.5506e-02	1.03	0.717
8.8560e-02	1.06	0.724
9.5372e-02	1.08	0.724
1.0332e-01	1.09	0.731
1.1271e-01	1.07	0.754
1.2398e-01	1.04	0.818
1.3051e-01	1.03	0.867
1.3776e-01	1.03	0.921
1.4586e-01	1.03	0.979
1.5498e-01	1.03	1.03
1.6531e-01	1.01	1.09
1.7712e-01	0.972	1.20
1.9074e-01	0.958	1.37
2.0664e-01	1.04	1.59
2.1377e-01	1.10	1.67
2.2140e-01	1.18	1.74
2.2960e-01	1.28	1.78
2.3843e-01	1.38	1.80
2.4797e-01	1.47	1.78
2.5830e-01	1.53	1.71
2.6953e-01	1.52	1.67
2.8178e-01	1.49	1.64
2.9520e-01	1.42	1.64
3.0996e-01	1.34	1.72
3.2627e-01	1.34	1.81
3.4440e-01	1.31	1.87
3.6466e-01	1.27	1.95
3.8745e-01	1.18	2.21
4.1328e-01	1.18	2.21
4.4280e-01	1.17	2.36
4.7686e-01	1.15	2.50
5.1660e-01	1.12	2.60
5.3906e-01	1.04	2.59
5.6356e-01	0.826	2.60
5.9040e-01	0.468	2.81
6.1992e-01	0.272	3.24
6.5255e-01	0.214	3.67
6.7018e-01	0.215	3.86
6.8880e-01	0.213	4.05
7.0848e-01	0.214	4.24
7.2932e-01	0.223	4.43
8.2656e-01	0.260	5.26
1.2398e+00	0.433	8.46
1.2651e+00	0.496	6.78
1.2915e+00	0.505	6.92
1.3190e+00	0.515	7.06
1.3477e+00	0.525	7.21
1.3776e+00	0.536	7.36
1.4089e+00	0.547	7.53
1.4417e+00	0.559	7.70
1.4760e+00	0.572	7.88
1.5120e+00	0.586	8.06
1.5498e+00	0.606	8.26
1.5895e+00	0.627	8.47
1.6314e+00	0.649	8.69
1.6755e+00	0.672	8.92
1.7220e+00	0.697	9.16
1.7712e+00	0.723	9.41
1.8233e+00	0.752	9.68
1.8785e+00	0.782	9.97
1.9373e+00	0.815	10.3
1.9997e+00	0.850	10.6
2.0664e+00	0.890	11.0
2.1377e+00	0.933	11.3
2.2140e+00	0.980	11.8
2.2960e+00	1.03	12.2
2.3843e+00	1.09	12.7
2.4797e+00	1.15	13.2
2.5830e+00	1.22	13.7
2.6953e+00	1.29	14.4
2.8178e+00	1.37	15.0
2.9520e+00	1.47	15.7
3.0996e+00	1.59	16.5
3.2627e+00	1.73	17.4
3.4440e+00	1.90	18.4
3.6466e+00	2.09	19.6
3.8745e+00	2.32	20.8
4.1328e+00	2.59	22.2
4.4280e+00	2.92	23.7
4.7686e+00	3.32	25.4
5.1660e+00	3.81	27.5
5.6356e+00	4.44	30.0
6.1992e+00	5.23	33.0
6.8880e+00	6.23	36.3
7.7490e+00	7.66	40.3
8.2656e+00	8.57	42.6
8.8560e+00	9.64	45.1
9.5372e+00	10.8	47.5
