Material: main / Au / Palik
Optical constants. Edited by E. D. Palik. Handbook of Optical Constants of Solids II, ACADEMIC PRESS, INC. (1991),
Comments: Room temperature
wavelength (um)	n	k
1.2500e-04	0.9999719	2.39e-6
1.3500e-04	0.9999665	3.13e-6
1.4499e-04	0.9999608	4.02e-6
1.4999e-04	0.9999578	4.52e-6
1.7500e-04	0.9999415	7.78e-6
2.0001e-04	0.9999227	1.25e-5
2.5002e-04	0.999879	2.75e-5
2.9999e-04	0.999831	5.25e-5
3.5004e-04	0.999794	9.07e-5
3.9995e-04	0.999769	1.20e-4
4.9994e-04	0.999706	2.36e-4
6.0012e-04	0.999637	9.88e-5
7.0008e-04	0.999395	1.68e-4
7.9990e-04	0.999156	2.67e-4
8.3379e-04	0.999085	3.10e-4
9.8871e-04	0.99885	4.40e-4
1.0436e-03	0.99871	5.33e-4
1.2251e-03	0.99820	9.40e-4
1.3340e-03	0.99788	1.23e-3
1.4561e-03	0.99759	1.57e-3
1.5969e-03	0.99734	1.86e-3
1.7589e-03	0.99708	2.34e-3
1.9449e-03	0.99665	2.68e-3
2.1642e-03	0.99652	2.85e-3
2.3621e-03	0.99624	3.76e-3
2.4782e-03	0.99600	5.60e-3
2.7418e-03	0.99592	6.10e-3
3.1357e-03	0.99525	6.15e-3
4.1328e-03	0.99100	8.95e-3
4.7686e-03	0.988	1.06e-2
5.6356e-03	0.986	1.18e-2
6.1992e-03	0.983	1.15e-2
6.8880e-03	0.979	1.07e-2
8.2656e-03	0.963	1.01e-2
1.0332e-02	0.929	1.78e-2
1.1271e-02	0.911	2.83e-2
1.1808e-02	0.900	3.53e-2
1.2398e-02	0.889	4.54e-2
1.4089e-02	0.889	5.54e-2
1.4170e-02	0.888	5.58e-2
1.4251e-02	0.887	5.76e-2
1.4417e-02	0.886	6.13e-2
1.4586e-02	0.887	6.48e-2
1.4673e-02	0.888	6.54e-2
1.4760e-02	0.888	6.33e-2
1.4848e-02	0.885	6.37e-2
1.4938e-02	0.884	6.53e-2
1.5120e-02	0.881	6.82e-2
1.5498e-02	0.878	7.52e-2
1.5895e-02	0.875	8.18e-2
1.6314e-02	0.873	8.71e-2
1.6755e-02	0.869	9.27e-2
1.7220e-02	0.862	9.97e-2
1.7712e-02	0.857	0.112
1.8233e-02	0.855	0.124
1.8785e-02	0.856	0.136
1.9373e-02	0.857	0.147
1.9997e-02	0.859	0.156
2.0664e-02	0.863	0.162
2.1377e-02	0.861	0.166
2.2140e-02	0.856	0.171
2.2960e-02	0.848	0.180
2.3843e-02	0.839	0.190
2.4797e-02	0.828	0.204
2.5303e-02	0.821	0.213
2.5830e-02	0.814	0.225
2.6380e-02	0.809	0.238
2.6953e-02	0.805	0.254
2.7552e-02	0.805	0.270
2.8178e-02	0.807	0.282
2.8834e-02	0.807	0.292
2.9520e-02	0.804	0.303
3.0240e-02	0.799	0.317
3.0996e-02	0.795	0.334
3.1791e-02	0.793	0.353
3.2627e-02	0.791	0.371
3.3509e-02	0.788	0.391
3.4440e-02	0.786	0.414
3.5424e-02	0.783	0.439
3.6466e-02	0.779	0.473
3.7571e-02	0.781	0.515
3.8745e-02	0.805	0.570
3.9995e-02	0.851	0.596
4.0651e-02	0.870	0.601
4.1328e-02	0.887	0.603
4.2029e-02	0.900	0.601
4.2753e-02	0.905	0.599
4.4280e-02	0.901	0.607
4.5920e-02	0.895	0.635
4.6999e-02	0.855	0.548
4.7686e-02	0.896	0.679
4.8000e-02	0.846	0.565
4.9006e-02	0.846	0.600
4.9994e-02	0.850	0.645
5.1001e-02	0.860	0.695
5.2007e-02	0.872	0.740
5.3007e-02	0.890	0.795
5.4000e-02	0.915	0.825
5.5006e-02	0.950	0.840
5.6000e-02	0.985	0.848
5.7004e-02	1.022	0.850
5.7991e-02	1.055	0.842
5.9012e-02	1.085	0.830
6.0012e-02	1.113	0.813
6.0986e-02	1.134	0.795
6.1992e-02	1.146	0.770
6.3000e-02	1.153	0.750
6.4008e-02	1.157	0.730
6.5015e-02	1.155	0.710
6.5984e-02	1.140	0.700
6.6982e-02	1.125	0.694
6.8011e-02	1.107	0.687
6.8995e-02	1.088	0.680
7.0008e-02	1.075	0.678
7.1010e-02	1.060	0.680
7.2000e-02	1.050	0.685
7.3018e-02	1.042	0.690
7.4020e-02	1.038	0.697
7.5006e-02	1.033	0.704
7.6017e-02	1.030	0.713
7.7009e-02	1.029	0.720
7.7977e-02	1.028	0.730
7.9021e-02	1.028	0.739
7.9990e-02	1.029	0.745
8.0982e-02	1.030	0.752
8.2000e-02	1.033	0.759
8.2988e-02	1.037	0.765
8.4000e-02	1.041	0.770
8.4979e-02	1.048	0.775
8.5981e-02	1.053	0.780
8.7006e-02	1.061	0.784
8.7994e-02	1.070	0.789
8.9005e-02	1.080	0.793
8.9974e-02	1.090	0.798
9.1031e-02	1.100	0.801
9.1976e-02	1.110	0.806
9.3011e-02	1.121	0.809
9.3999e-02	1.133	0.812
9.5007e-02	1.146	0.815
9.5963e-02	1.159	0.819
9.7014e-02	1.170	0.823
9.8011e-02	1.180	0.826
9.9029e-02	1.190	0.831
9.9987e-02	1.200	0.836
1.0096e-01	1.207	0.842
1.0196e-01	1.210	0.848
1.0298e-01	1.213	0.853
1.0401e-01	1.215	0.860
1.0498e-01	1.217	0.865
1.0597e-01	1.217	0.870
1.0698e-01	1.218	0.878
1.0800e-01	1.218	0.885
1.0905e-01	1.220	0.893
1.1001e-01	1.222	0.900
1.1100e-01	1.223	0.907
1.1200e-01	1.225	0.914
1.1302e-01	1.228	0.922
1.1396e-01	1.232	0.927
1.1501e-01	1.237	0.932
1.1598e-01	1.242	0.935
1.1697e-01	1.247	0.942
1.1797e-01	1.250	0.950
1.1899e-01	1.255	0.955
1.2002e-01	1.260	0.962
1.2096e-01	1.265	0.967
1.2203e-01	1.270	0.975
1.2300e-01	1.275	0.982
1.2398e-01	1.280	0.987
1.2500e-01	1.285	0.994
1.2600e-01	1.290	1.000
1.2699e-01	1.295	1.005
1.2800e-01	1.300	1.012
1.2900e-01	1.304	1.017
1.3000e-01	1.308	1.020
1.3099e-01	1.313	1.027
1.3200e-01	1.318	1.032
1.3300e-01	1.323	1.038
1.3399e-01	1.328	1.045
1.3500e-01	1.333	1.050
1.3599e-01	1.338	1.053
1.3700e-01	1.345	1.058
1.3801e-01	1.350	1.063
1.3900e-01	1.355	1.067
1.4000e-01	1.360	1.072
1.4499e-01	1.386	1.089
1.4999e-01	1.419	1.102
1.5500e-01	1.450	1.108
1.6000e-01	1.483	1.106
1.6500e-01	1.512	1.093
1.7000e-01	1.519	1.070
1.7500e-01	1.500	1.070
1.8000e-01	1.470	1.085
1.8500e-01	1.442	1.107
1.8998e-01	1.427	1.135
1.9501e-01	1.424	1.170
2.0001e-01	1.427	1.215
2.0664e-01	1.422	1.306
2.1014e-01	1.430	1.334
2.1377e-01	1.432	1.364
2.1752e-01	1.438	1.388
2.2140e-01	1.442	1.418
2.2543e-01	1.452	1.442
2.2960e-01	1.454	1.478
2.3393e-01	1.462	1.510
2.3843e-01	1.470	1.550
2.4311e-01	1.478	1.590
2.4797e-01	1.484	1.636
2.5303e-01	1.490	1.698
2.5830e-01	1.504	1.748
2.6380e-01	1.546	1.784
2.6953e-01	1.598	1.822
2.7552e-01	1.648	1.852
2.8178e-01	1.690	1.882
2.8834e-01	1.742	1.900
2.9520e-01	1.776	1.918
3.0240e-01	1.812	1.920
3.0996e-01	1.830	1.916
3.1791e-01	1.840	1.904
3.2627e-01	1.824	1.878
3.3509e-01	1.798	1.860
3.4440e-01	1.766	1.846
3.5424e-01	1.740	1.848
3.6466e-01	1.716	1.862
3.7571e-01	1.696	1.906
3.8745e-01	1.674	1.936
3.9995e-01	1.658	1.956
4.1328e-01	1.636	1.958
4.2753e-01	1.616	1.940
4.4280e-01	1.562	1.904
4.5920e-01	1.426	1.846
4.7686e-01	1.242	1.796
4.9594e-01	0.916	1.840
5.1660e-01	0.608	2.120
5.3906e-01	0.402	2.540
5.6356e-01	0.306	2.88
5.9040e-01	0.236	2.88
6.1992e-01	0.194	2.88
6.5255e-01	0.166	3.15
6.8880e-01	0.160	3.80
7.2932e-01	0.164	4.35
7.7490e-01	0.174	4.86
8.2656e-01	0.188	5.39
8.8560e-01	0.210	5.88
9.5372e-01	0.236	6.47
1.0332e+00	0.272	7.07
1.1271e+00	0.312	7.93
1.2398e+00	0.372	8.77
1.2651e+00	0.389	8.09
1.2915e+00	0.403	8.25
1.3190e+00	0.419	8.42
1.3477e+00	0.436	8.59
1.3776e+00	0.458	9.72
1.4089e+00	0.473	8.96
1.4417e+00	0.493	9.15
1.4760e+00	0.515	9.36
1.5120e+00	0.537	9.58
1.5498e+00	0.550	11.5
1.5895e+00	0.583	10.1
1.6314e+00	0.609	10.3
1.6755e+00	0.636	10.6
1.7220e+00	0.665	10.9
1.7712e+00	0.726	12.9
1.8233e+00	0.730	11.5
1.8785e+00	0.767	11.9
1.9373e+00	0.807	12.2
1.9997e+00	0.850	12.6
2.0664e+00	0.976	15.1
2.1377e+00	0.947	13.4
2.2140e+00	1.002	13.9
2.2960e+00	1.063	14.4
2.3843e+00	1.130	14.9
2.4797e+00	1.205	15.5
2.5830e+00	1.287	16.1
2.6953e+00	1.379	16.8
2.8178e+00	1.482	17.5
2.9520e+00	1.598	18.3
3.0996e+00	1.728	19.2
3.1791e+00	1.800	19.7
3.2627e+00	1.876	20.2
3.3509e+00	1.958	20.7
3.4440e+00	2.046	21.3
3.5424e+00	2.141	21.9
3.6466e+00	2.242	22.5
3.7571e+00	2.352	23.1
3.8745e+00	2.471	23.9
3.9995e+00	2.600	24.6
4.1328e+00	2.749	25.4
4.2753e+00	2.912	26.3
4.4280e+00	3.091	27.2
4.5920e+00	3.289	28.2
4.7686e+00	3.507	29.3
4.9594e+00	3.748	30.5
5.1660e+00	4.007	31.7
5.3906e+00	4.292	32.9
5.6356e+00	4.611	34.3
5.9040e+00	4.971	35.9
6.1992e+00	5.423	37.5
6.3582e+00	5.684	38.3
6.5255e+00	5.966	39.1
6.7018e+00	6.270	40.1
6.8880e+00	6.598	41.0
7.0848e+00	6.937	42.0
7.2932e+00	7.282	43.0
7.5142e+00	7.655	44.1
7.7490e+00	8.060	45.2
7.9990e+00	8.500	46.4
8.2656e+00	9.016	47.6
8.5506e+00	9.582	48.8
8.8560e+00	10.21	50.2
9.1840e+00	10.84	51.6
9.5372e+00	11.51	53.1
9.9187e+00	12.24	54.7
